MODEL 1
REMARK VINA RESULT:    -9.550      0.000      0.000
REMARK INTER + INTRA:         -12.722
REMARK INTER:                 -12.341
REMARK INTRA:                  -0.380
REMARK UNBOUND:                -0.380
REMARK  Name = 
REMARK  5 active torsions:
REMARK  status: ('A' for Active; 'I' for Inactive)
REMARK    1  A    between atoms: N_1  and  C_15
REMARK    2  A    between atoms: N_4  and  C_41
REMARK    3  A    between atoms: C_15  and  C_21
REMARK    4  A    between atoms: C_26  and  C_30
REMARK    5  A    between atoms: C_41  and  C_44
REMARK                            x       y       z     vdW  Elec       q    Type
REMARK                         _______ _______ _______ _____ _____    ______ ____
ROOT
ATOM      1  N   UNL     1       4.222  -2.801  17.638  0.00  0.00    -0.293 NA
ATOM      2  C   UNL     1       3.671  -4.104  18.058  0.00  0.00    +0.012 C 
ATOM      3  C   UNL     1       4.681  -4.845  18.939  0.00  0.00    +0.012 C 
ATOM      4  N   UNL     1       5.014  -4.035  20.126  0.00  0.00    -0.296 NA
ATOM      5  C   UNL     1       5.566  -2.731  19.703  0.00  0.00    +0.012 C 
ATOM      6  C   UNL     1       4.552  -1.990  18.828  0.00  0.00    +0.012 C 
ATOM      7  H   UNL     1       3.466  -4.734  17.165  0.00  0.00    +0.044 HD
ATOM      8  H   UNL     1       2.717  -3.969  18.619  0.00  0.00    +0.044 HD
ATOM      9  H   UNL     1       4.221  -5.807  19.254  0.00  0.00    +0.044 HD
ATOM     10  H   UNL     1       5.597  -5.072  18.345  0.00  0.00    +0.044 HD
ATOM     11  H   UNL     1       6.516  -2.864  19.135  0.00  0.00    +0.044 HD
ATOM     12  H   UNL     1       5.778  -2.097  20.592  0.00  0.00    +0.044 HD
ATOM     13  H   UNL     1       5.006  -1.024  18.519  0.00  0.00    +0.044 HD
ATOM     14  H   UNL     1       3.638  -1.771  19.427  0.00  0.00    +0.044 HD
ENDROOT
BRANCH   1  15
ATOM     15  C   UNL     1       3.253  -2.097  16.773  0.00  0.00    +0.057 C 
ATOM     16  H   UNL     1       2.420  -1.665  17.373  0.00  0.00    +0.051 HD
ATOM     17  H   UNL     1       2.799  -2.803  16.043  0.00  0.00    +0.051 HD
BRANCH  15  21
ATOM     18  O   UNL     1       3.901   2.487  15.662  0.00  0.00    -0.267 OA
ATOM     19  C   UNL     1       4.231   1.287  15.466  0.00  0.00    +0.260 A 
ATOM     20  N   UNL     1       3.641   0.294  16.195  0.00  0.00    -0.309 N 
ATOM     21  C   UNL     1       3.941  -1.025  15.980  0.00  0.00    +0.125 A 
ATOM     22  N   UNL     1       4.836  -1.373  15.012  0.00  0.00    -0.225 NA
ATOM     23  C   UNL     1       5.436  -0.399  14.290  0.00  0.00    +0.116 A 
ATOM     24  S   UNL     1       6.528  -0.614  13.039  0.00  0.00    -0.076 S 
ATOM     25  C   UNL     1       6.706   1.038  12.726  0.00  0.00    -0.014 A 
ATOM     26  C   UNL     1       5.912   1.771  13.615  0.00  0.00    +0.004 A 
ATOM     27  C   UNL     1       5.180   0.941  14.493  0.00  0.00    +0.080 A 
ATOM     28  H   UNL     1       2.935   0.548  16.924  0.00  0.00    +0.170 HD
ATOM     29  H   UNL     1       7.354   1.460  11.969  0.00  0.00    +0.070 HD
BRANCH  26  30
ATOM     30  C   UNL     1       5.904   3.248  13.615  0.00  0.00    -0.016 A 
ATOM     31  C   UNL     1       5.013   3.956  12.789  0.00  0.00    -0.051 A 
ATOM     32  C   UNL     1       4.988   5.353  12.817  0.00  0.00    -0.026 A 
ATOM     33  C   UNL     1       5.841   6.052  13.676  0.00  0.00    +0.123 A 
ATOM     34  F   UNL     1       5.814   7.408  13.702  0.00  0.00    -0.205 F 
ATOM     35  C   UNL     1       6.716   5.355  14.513  0.00  0.00    -0.026 A 
ATOM     36  C   UNL     1       6.743   3.956  14.489  0.00  0.00    -0.051 A 
ATOM     37  H   UNL     1       4.335   3.425  12.133  0.00  0.00    +0.062 HD
ATOM     38  H   UNL     1       4.303   5.893  12.175  0.00  0.00    +0.065 HD
ATOM     39  H   UNL     1       7.371   5.895  15.183  0.00  0.00    +0.065 HD
ATOM     40  H   UNL     1       7.424   3.427  15.144  0.00  0.00    +0.062 HD
ENDBRANCH  26  30
ENDBRANCH  15  21
ENDBRANCH   1  15
BRANCH   4  41
ATOM     41  C   UNL     1       5.976  -4.759  20.982  0.00  0.00    +0.024 C 
ATOM     42  H   UNL     1       6.747  -5.276  20.366  0.00  0.00    +0.048 HD
ATOM     43  H   UNL     1       5.454  -5.550  21.565  0.00  0.00    +0.048 HD
BRANCH  41  44
ATOM     44  C   UNL     1       6.611  -3.822  21.976  0.00  0.00    -0.033 A 
ATOM     45  C   UNL     1       5.991  -3.558  23.208  0.00  0.00    -0.056 A 
ATOM     46  C   UNL     1       6.597  -2.702  24.133  0.00  0.00    -0.043 A 
ATOM     47  C   UNL     1       7.827  -2.106  23.835  0.00  0.00    +0.041 A 
ATOM     48 CL   UNL     1       8.586  -1.034  24.997  0.00  0.00    -0.084 Cl
ATOM     49  C   UNL     1       8.452  -2.368  22.611  0.00  0.00    -0.043 A 
ATOM     50  C   UNL     1       7.848  -3.223  21.686  0.00  0.00    -0.056 A 
ATOM     51  H   UNL     1       5.043  -4.019  23.456  0.00  0.00    +0.062 HD
ATOM     52  H   UNL     1       6.112  -2.506  25.081  0.00  0.00    +0.063 HD
ATOM     53  H   UNL     1       9.405  -1.911  22.378  0.00  0.00    +0.063 HD
ATOM     54  H   UNL     1       8.344  -3.423  20.743  0.00  0.00    +0.062 HD
ENDBRANCH  41  44
ENDBRANCH   4  41
TORSDOF 5
ENDMDL
MODEL 2
REMARK VINA RESULT:    -9.114      0.776      1.156
REMARK INTER + INTRA:         -12.159
REMARK INTER:                 -12.231
REMARK INTRA:                   0.072
REMARK UNBOUND:                -0.380
REMARK  Name = 
REMARK  5 active torsions:
REMARK  status: ('A' for Active; 'I' for Inactive)
REMARK    1  A    between atoms: N_1  and  C_15
REMARK    2  A    between atoms: N_4  and  C_41
REMARK    3  A    between atoms: C_15  and  C_21
REMARK    4  A    between atoms: C_26  and  C_30
REMARK    5  A    between atoms: C_41  and  C_44
REMARK                            x       y       z     vdW  Elec       q    Type
REMARK                         _______ _______ _______ _____ _____    ______ ____
ROOT
ATOM      1  N   UNL     1       4.338  -2.961  17.996  0.00  0.00    -0.293 NA
ATOM      2  C   UNL     1       3.838  -4.321  18.274  0.00  0.00    +0.012 C 
ATOM      3  C   UNL     1       4.744  -5.018  19.293  0.00  0.00    +0.012 C 
ATOM      4  N   UNL     1       4.800  -4.238  20.544  0.00  0.00    -0.296 NA
ATOM      5  C   UNL     1       5.302  -2.877  20.263  0.00  0.00    +0.012 C 
ATOM      6  C   UNL     1       4.391  -2.181  19.249  0.00  0.00    +0.012 C 
ATOM      7  H   UNL     1       3.843  -4.926  17.341  0.00  0.00    +0.044 HD
ATOM      8  H   UNL     1       2.795  -4.288  18.665  0.00  0.00    +0.044 HD
ATOM      9  H   UNL     1       4.321  -6.026  19.496  0.00  0.00    +0.044 HD
ATOM     10  H   UNL     1       5.763  -5.146  18.860  0.00  0.00    +0.044 HD
ATOM     11  H   UNL     1       6.342  -2.909  19.864  0.00  0.00    +0.044 HD
ATOM     12  H   UNL     1       5.304  -2.269  21.194  0.00  0.00    +0.044 HD
ATOM     13  H   UNL     1       4.807  -1.168  19.052  0.00  0.00    +0.044 HD
ATOM     14  H   UNL     1       3.373  -2.061  19.687  0.00  0.00    +0.044 HD
ENDROOT
BRANCH   1  15
ATOM     15  C   UNL     1       3.474  -2.299  16.998  0.00  0.00    +0.057 C 
ATOM     16  H   UNL     1       2.546  -1.904  17.471  0.00  0.00    +0.051 HD
ATOM     17  H   UNL     1       3.160  -3.022  16.214  0.00  0.00    +0.051 HD
BRANCH  15  21
ATOM     18  O   UNL     1       3.609   2.027  15.013  0.00  0.00    -0.267 OA
ATOM     19  C   UNL     1       4.235   0.981  15.330  0.00  0.00    +0.260 A 
ATOM     20  N   UNL     1       3.586  -0.026  15.985  0.00  0.00    -0.309 N 
ATOM     21  C   UNL     1       4.221  -1.196  16.306  0.00  0.00    +0.125 A 
ATOM     22  N   UNL     1       5.527  -1.382  15.960  0.00  0.00    -0.225 NA
ATOM     23  C   UNL     1       6.185  -0.389  15.320  0.00  0.00    +0.116 A 
ATOM     24  S   UNL     1       7.768  -0.430  14.776  0.00  0.00    -0.076 S 
ATOM     25  C   UNL     1       7.726   1.124  14.112  0.00  0.00    -0.014 A 
ATOM     26  C   UNL     1       6.465   1.691  14.324  0.00  0.00    +0.004 A 
ATOM     27  C   UNL     1       5.588   0.813  15.001  0.00  0.00    +0.080 A 
ATOM     28  H   UNL     1       2.577   0.096  16.235  0.00  0.00    +0.170 HD
ATOM     29  H   UNL     1       8.558   1.612  13.620  0.00  0.00    +0.070 HD
BRANCH  26  30
ATOM     30  C   UNL     1       6.149   3.069  13.899  0.00  0.00    -0.016 A 
ATOM     31  C   UNL     1       5.390   3.300  12.739  0.00  0.00    -0.051 A 
ATOM     32  C   UNL     1       5.067   4.606  12.358  0.00  0.00    -0.026 A 
ATOM     33  C   UNL     1       5.488   5.687  13.138  0.00  0.00    +0.123 A 
ATOM     34  F   UNL     1       5.173   6.954  12.768  0.00  0.00    -0.205 F 
ATOM     35  C   UNL     1       6.227   5.464  14.302  0.00  0.00    -0.026 A 
ATOM     36  C   UNL     1       6.552   4.158  14.687  0.00  0.00    -0.051 A 
ATOM     37  H   UNL     1       5.042   2.470  12.137  0.00  0.00    +0.062 HD
ATOM     38  H   UNL     1       4.485   4.779  11.461  0.00  0.00    +0.065 HD
ATOM     39  H   UNL     1       6.548   6.300  14.910  0.00  0.00    +0.065 HD
ATOM     40  H   UNL     1       7.123   3.998  15.593  0.00  0.00    +0.062 HD
ENDBRANCH  26  30
ENDBRANCH  15  21
ENDBRANCH   1  15
BRANCH   4  41
ATOM     41  C   UNL     1       5.661  -4.921  21.532  0.00  0.00    +0.024 C 
ATOM     42  H   UNL     1       6.342  -5.648  21.032  0.00  0.00    +0.048 HD
ATOM     43  H   UNL     1       5.040  -5.508  22.245  0.00  0.00    +0.048 HD
BRANCH  41  44
ATOM     44  C   UNL     1       6.437  -3.917  22.342  0.00  0.00    -0.033 A 
ATOM     45  C   UNL     1       7.612  -3.340  21.833  0.00  0.00    -0.056 A 
ATOM     46  C   UNL     1       8.315  -2.392  22.584  0.00  0.00    -0.043 A 
ATOM     47  C   UNL     1       7.848  -2.013  23.847  0.00  0.00    +0.041 A 
ATOM     48 CL   UNL     1       8.731  -0.824  24.787  0.00  0.00    -0.084 Cl
ATOM     49  C   UNL     1       6.677  -2.581  24.359  0.00  0.00    -0.043 A 
ATOM     50  C   UNL     1       5.973  -3.527  23.610  0.00  0.00    -0.056 A 
ATOM     51  H   UNL     1       7.980  -3.618  20.853  0.00  0.00    +0.062 HD
ATOM     52  H   UNL     1       9.219  -1.953  22.182  0.00  0.00    +0.063 HD
ATOM     53  H   UNL     1       6.311  -2.288  25.334  0.00  0.00    +0.063 HD
ATOM     54  H   UNL     1       5.063  -3.957  24.014  0.00  0.00    +0.062 HD
ENDBRANCH  41  44
ENDBRANCH   4  41
TORSDOF 5
ENDMDL
MODEL 3
REMARK VINA RESULT:    -7.827      4.068      9.530
REMARK INTER + INTRA:         -10.495
REMARK INTER:                 -10.756
REMARK INTRA:                   0.260
REMARK UNBOUND:                -0.380
REMARK  Name = 
REMARK  5 active torsions:
REMARK  status: ('A' for Active; 'I' for Inactive)
REMARK    1  A    between atoms: N_1  and  C_15
REMARK    2  A    between atoms: N_4  and  C_41
REMARK    3  A    between atoms: C_15  and  C_21
REMARK    4  A    between atoms: C_26  and  C_30
REMARK    5  A    between atoms: C_41  and  C_44
REMARK                            x       y       z     vdW  Elec       q    Type
REMARK                         _______ _______ _______ _____ _____    ______ ____
ROOT
ATOM      1  N   UNL     1       4.505  -0.848  15.325  0.00  0.00    -0.293 NA
ATOM      2  C   UNL     1       3.957   0.519  15.406  0.00  0.00    +0.012 C 
ATOM      3  C   UNL     1       4.955   1.524  14.823  0.00  0.00    +0.012 C 
ATOM      4  N   UNL     1       5.257   1.186  13.419  0.00  0.00    -0.296 NA
ATOM      5  C   UNL     1       5.807  -0.183  13.340  0.00  0.00    +0.012 C 
ATOM      6  C   UNL     1       4.804  -1.185  13.919  0.00  0.00    +0.012 C 
ATOM      7  H   UNL     1       3.776   0.793  16.469  0.00  0.00    +0.044 HD
ATOM      8  H   UNL     1       2.990   0.593  14.855  0.00  0.00    +0.044 HD
ATOM      9  H   UNL     1       4.496   2.535  14.878  0.00  0.00    +0.044 HD
ATOM     10  H   UNL     1       5.885   1.525  15.439  0.00  0.00    +0.044 HD
ATOM     11  H   UNL     1       6.769  -0.261  13.898  0.00  0.00    +0.044 HD
ATOM     12  H   UNL     1       5.994  -0.461  12.280  0.00  0.00    +0.044 HD
ATOM     13  H   UNL     1       5.257  -2.199  13.855  0.00  0.00    +0.044 HD
ATOM     14  H   UNL     1       3.876  -1.177  13.301  0.00  0.00    +0.044 HD
ENDROOT
BRANCH   1  15
ATOM     15  C   UNL     1       3.548  -1.812  15.906  0.00  0.00    +0.057 C 
ATOM     16  H   UNL     1       3.366  -2.664  15.213  0.00  0.00    +0.051 HD
ATOM     17  H   UNL     1       2.566  -1.323  16.089  0.00  0.00    +0.051 HD
BRANCH  15  21
ATOM     18  O   UNL     1       6.309  -1.340  19.756  0.00  0.00    -0.267 OA
ATOM     19  C   UNL     1       5.444  -2.020  19.143  0.00  0.00    +0.260 A 
ATOM     20  N   UNL     1       4.954  -1.576  17.949  0.00  0.00    -0.309 N 
ATOM     21  C   UNL     1       4.046  -2.310  17.232  0.00  0.00    +0.125 A 
ATOM     22  N   UNL     1       3.621  -3.518  17.700  0.00  0.00    -0.225 NA
ATOM     23  C   UNL     1       4.091  -3.965  18.886  0.00  0.00    +0.116 A 
ATOM     24  S   UNL     1       3.729  -5.429  19.615  0.00  0.00    -0.076 S 
ATOM     25  C   UNL     1       4.726  -5.166  20.955  0.00  0.00    -0.014 A 
ATOM     26  C   UNL     1       5.344  -3.917  20.842  0.00  0.00    +0.004 A 
ATOM     27  C   UNL     1       4.987  -3.246  19.650  0.00  0.00    +0.080 A 
ATOM     28  H   UNL     1       5.290  -0.662  17.568  0.00  0.00    +0.170 HD
ATOM     29  H   UNL     1       4.846  -5.853  21.783  0.00  0.00    +0.070 HD
BRANCH  26  30
ATOM     30  C   UNL     1       6.235  -3.390  21.895  0.00  0.00    -0.016 A 
ATOM     31  C   UNL     1       7.592  -3.147  21.624  0.00  0.00    -0.051 A 
ATOM     32  C   UNL     1       8.424  -2.619  22.616  0.00  0.00    -0.026 A 
ATOM     33  C   UNL     1       7.905  -2.318  23.879  0.00  0.00    +0.123 A 
ATOM     34  F   UNL     1       8.712  -1.805  24.840  0.00  0.00    -0.205 F 
ATOM     35  C   UNL     1       6.552  -2.541  24.149  0.00  0.00    -0.026 A 
ATOM     36  C   UNL     1       5.716  -3.068  23.159  0.00  0.00    -0.051 A 
ATOM     37  H   UNL     1       8.002  -3.357  20.644  0.00  0.00    +0.062 HD
ATOM     38  H   UNL     1       9.470  -2.437  22.403  0.00  0.00    +0.065 HD
ATOM     39  H   UNL     1       6.148  -2.302  25.124  0.00  0.00    +0.065 HD
ATOM     40  H   UNL     1       4.669  -3.234  23.380  0.00  0.00    +0.062 HD
ENDBRANCH  26  30
ENDBRANCH  15  21
ENDBRANCH   1  15
BRANCH   4  41
ATOM     41  C   UNL     1       6.208   2.167  12.854  0.00  0.00    +0.024 C 
ATOM     42  H   UNL     1       6.080   2.256  11.751  0.00  0.00    +0.048 HD
ATOM     43  H   UNL     1       7.255   1.831  13.025  0.00  0.00    +0.048 HD
BRANCH  41  44
ATOM     44  C   UNL     1       6.053   3.504  13.530  0.00  0.00    -0.033 A 
ATOM     45  C   UNL     1       6.931   3.893  14.554  0.00  0.00    -0.056 A 
ATOM     46  C   UNL     1       6.793   5.145  15.163  0.00  0.00    -0.043 A 
ATOM     47  C   UNL     1       5.779   6.016  14.751  0.00  0.00    +0.041 A 
ATOM     48 CL   UNL     1       5.608   7.586  15.514  0.00  0.00    -0.084 Cl
ATOM     49  C   UNL     1       4.904   5.636  13.729  0.00  0.00    -0.043 A 
ATOM     50  C   UNL     1       5.040   4.386  13.119  0.00  0.00    -0.056 A 
ATOM     51  H   UNL     1       7.726   3.233  14.878  0.00  0.00    +0.062 HD
ATOM     52  H   UNL     1       7.475   5.437  15.951  0.00  0.00    +0.063 HD
ATOM     53  H   UNL     1       4.120   6.309  13.405  0.00  0.00    +0.063 HD
ATOM     54  H   UNL     1       4.360   4.104  12.324  0.00  0.00    +0.062 HD
ENDBRANCH  41  44
ENDBRANCH   4  41
TORSDOF 5
ENDMDL
MODEL 4
REMARK VINA RESULT:    -7.514      4.076      9.531
REMARK INTER + INTRA:         -10.091
REMARK INTER:                 -10.311
REMARK INTRA:                   0.220
REMARK UNBOUND:                -0.380
REMARK  Name = 
REMARK  5 active torsions:
REMARK  status: ('A' for Active; 'I' for Inactive)
REMARK    1  A    between atoms: N_1  and  C_15
REMARK    2  A    between atoms: N_4  and  C_41
REMARK    3  A    between atoms: C_15  and  C_21
REMARK    4  A    between atoms: C_26  and  C_30
REMARK    5  A    between atoms: C_41  and  C_44
REMARK                            x       y       z     vdW  Elec       q    Type
REMARK                         _______ _______ _______ _____ _____    ______ ____
ROOT
ATOM      1  N   UNL     1       4.523  -0.838  15.290  0.00  0.00    -0.293 NA
ATOM      2  C   UNL     1       4.003   0.538  15.397  0.00  0.00    +0.012 C 
ATOM      3  C   UNL     1       5.011   1.531  14.811  0.00  0.00    +0.012 C 
ATOM      4  N   UNL     1       5.285   1.206  13.398  0.00  0.00    -0.296 NA
ATOM      5  C   UNL     1       5.807  -0.172  13.293  0.00  0.00    +0.012 C 
ATOM      6  C   UNL     1       4.794  -1.162  13.874  0.00  0.00    +0.012 C 
ATOM      7  H   UNL     1       3.843   0.801  16.466  0.00  0.00    +0.044 HD
ATOM      8  H   UNL     1       3.030   0.637  14.862  0.00  0.00    +0.044 HD
ATOM      9  H   UNL     1       4.573   2.550  14.887  0.00  0.00    +0.044 HD
ATOM     10  H   UNL     1       5.950   1.507  15.412  0.00  0.00    +0.044 HD
ATOM     11  H   UNL     1       6.776  -0.275  13.834  0.00  0.00    +0.044 HD
ATOM     12  H   UNL     1       5.972  -0.439  12.227  0.00  0.00    +0.044 HD
ATOM     13  H   UNL     1       5.226  -2.183  13.790  0.00  0.00    +0.044 HD
ATOM     14  H   UNL     1       3.857  -1.128  13.271  0.00  0.00    +0.044 HD
ENDROOT
BRANCH   1  15
ATOM     15  C   UNL     1       3.557  -1.791  15.873  0.00  0.00    +0.057 C 
ATOM     16  H   UNL     1       3.376  -2.650  15.186  0.00  0.00    +0.051 HD
ATOM     17  H   UNL     1       2.576  -1.295  16.043  0.00  0.00    +0.051 HD
BRANCH  15  21
ATOM     18  O   UNL     1       6.271  -1.282  19.751  0.00  0.00    -0.267 OA
ATOM     19  C   UNL     1       5.417  -1.970  19.132  0.00  0.00    +0.260 A 
ATOM     20  N   UNL     1       4.937  -1.536  17.930  0.00  0.00    -0.309 N 
ATOM     21  C   UNL     1       4.042  -2.278  17.207  0.00  0.00    +0.125 A 
ATOM     22  N   UNL     1       3.619  -3.486  17.677  0.00  0.00    -0.225 NA
ATOM     23  C   UNL     1       4.077  -3.924  18.872  0.00  0.00    +0.116 A 
ATOM     24  S   UNL     1       3.715  -5.385  19.605  0.00  0.00    -0.076 S 
ATOM     25  C   UNL     1       4.695  -5.109  20.955  0.00  0.00    -0.014 A 
ATOM     26  C   UNL     1       5.307  -3.857  20.841  0.00  0.00    +0.004 A 
ATOM     27  C   UNL     1       4.960  -3.195  19.642  0.00  0.00    +0.080 A 
ATOM     28  H   UNL     1       5.273  -0.621  17.548  0.00  0.00    +0.170 HD
ATOM     29  H   UNL     1       4.810  -5.790  21.788  0.00  0.00    +0.070 HD
BRANCH  26  30
ATOM     30  C   UNL     1       6.183  -3.319  21.901  0.00  0.00    -0.016 A 
ATOM     31  C   UNL     1       5.669  -3.044  23.180  0.00  0.00    -0.051 A 
ATOM     32  C   UNL     1       6.510  -2.564  24.188  0.00  0.00    -0.026 A 
ATOM     33  C   UNL     1       7.870  -2.368  23.932  0.00  0.00    +0.123 A 
ATOM     34  F   UNL     1       8.685  -1.904  24.912  0.00  0.00    -0.205 F 
ATOM     35  C   UNL     1       8.392  -2.657  22.668  0.00  0.00    -0.026 A 
ATOM     36  C   UNL     1       7.553  -3.138  21.656  0.00  0.00    -0.051 A 
ATOM     37  H   UNL     1       4.621  -3.210  23.396  0.00  0.00    +0.062 HD
ATOM     38  H   UNL     1       6.107  -2.350  25.170  0.00  0.00    +0.065 HD
ATOM     39  H   UNL     1       9.446  -2.512  22.471  0.00  0.00    +0.065 HD
ATOM     40  H   UNL     1       7.971  -3.360  20.682  0.00  0.00    +0.062 HD
ENDBRANCH  26  30
ENDBRANCH  15  21
ENDBRANCH   1  15
BRANCH   4  41
ATOM     41  C   UNL     1       6.245   2.176  12.831  0.00  0.00    +0.024 C 
ATOM     42  H   UNL     1       6.131   2.250  11.725  0.00  0.00    +0.048 HD
ATOM     43  H   UNL     1       7.289   1.840  13.020  0.00  0.00    +0.048 HD
BRANCH  41  44
ATOM     44  C   UNL     1       6.087   3.523  13.487  0.00  0.00    -0.033 A 
ATOM     45  C   UNL     1       5.074   4.404  13.076  0.00  0.00    -0.056 A 
ATOM     46  C   UNL     1       4.921   5.644  13.705  0.00  0.00    -0.043 A 
ATOM     47  C   UNL     1       5.778   6.011  14.748  0.00  0.00    +0.041 A 
ATOM     48 CL   UNL     1       5.584   7.566  15.535  0.00  0.00    -0.084 Cl
ATOM     49  C   UNL     1       6.787   5.137  15.164  0.00  0.00    -0.043 A 
ATOM     50  C   UNL     1       6.941   3.897  14.538  0.00  0.00    -0.056 A 
ATOM     51  H   UNL     1       4.398   4.130  12.276  0.00  0.00    +0.062 HD
ATOM     52  H   UNL     1       4.136   6.316  13.382  0.00  0.00    +0.063 HD
ATOM     53  H   UNL     1       7.450   5.416  15.973  0.00  0.00    +0.063 HD
ATOM     54  H   UNL     1       7.722   3.225  14.872  0.00  0.00    +0.062 HD
ENDBRANCH  41  44
ENDBRANCH   4  41
TORSDOF 5
ENDMDL
MODEL 5
REMARK VINA RESULT:    -6.718      4.091      9.295
REMARK INTER + INTRA:          -9.062
REMARK INTER:                 -10.824
REMARK INTRA:                   1.761
REMARK UNBOUND:                -0.380
REMARK  Name = 
REMARK  5 active torsions:
REMARK  status: ('A' for Active; 'I' for Inactive)
REMARK    1  A    between atoms: N_1  and  C_15
REMARK    2  A    between atoms: N_4  and  C_41
REMARK    3  A    between atoms: C_15  and  C_21
REMARK    4  A    between atoms: C_26  and  C_30
REMARK    5  A    between atoms: C_41  and  C_44
REMARK                            x       y       z     vdW  Elec       q    Type
REMARK                         _______ _______ _______ _____ _____    ______ ____
ROOT
ATOM      1  N   UNL     1       4.423  -0.919  15.509  0.00  0.00    -0.293 NA
ATOM      2  C   UNL     1       4.331  -0.892  14.036  0.00  0.00    +0.012 C 
ATOM      3  C   UNL     1       5.220   0.220  13.472  0.00  0.00    +0.012 C 
ATOM      4  N   UNL     1       6.621   0.011  13.884  0.00  0.00    -0.296 NA
ATOM      5  C   UNL     1       6.711  -0.014  15.359  0.00  0.00    +0.012 C 
ATOM      6  C   UNL     1       5.826  -1.131  15.919  0.00  0.00    +0.012 C 
ATOM      7  H   UNL     1       3.283  -0.685  13.725  0.00  0.00    +0.044 HD
ATOM      8  H   UNL     1       4.639  -1.871  13.601  0.00  0.00    +0.044 HD
ATOM      9  H   UNL     1       5.143   0.191  12.363  0.00  0.00    +0.044 HD
ATOM     10  H   UNL     1       4.847   1.210  13.824  0.00  0.00    +0.044 HD
ATOM     11  H   UNL     1       6.395   0.961  15.796  0.00  0.00    +0.044 HD
ATOM     12  H   UNL     1       7.757  -0.216  15.676  0.00  0.00    +0.044 HD
ATOM     13  H   UNL     1       5.908  -1.110  17.028  0.00  0.00    +0.044 HD
ATOM     14  H   UNL     1       6.202  -2.116  15.559  0.00  0.00    +0.044 HD
ENDROOT
BRANCH   1  15
ATOM     15  C   UNL     1       3.550  -1.980  16.051  0.00  0.00    +0.057 C 
ATOM     16  H   UNL     1       3.463  -2.831  15.338  0.00  0.00    +0.051 HD
ATOM     17  H   UNL     1       2.522  -1.589  16.220  0.00  0.00    +0.051 HD
BRANCH  15  21
ATOM     18  O   UNL     1       6.251  -1.372  19.924  0.00  0.00    -0.267 OA
ATOM     19  C   UNL     1       5.431  -2.097  19.301  0.00  0.00    +0.260 A 
ATOM     20  N   UNL     1       4.924  -1.676  18.105  0.00  0.00    -0.309 N 
ATOM     21  C   UNL     1       4.065  -2.455  17.378  0.00  0.00    +0.125 A 
ATOM     22  N   UNL     1       3.706  -3.688  17.837  0.00  0.00    -0.225 NA
ATOM     23  C   UNL     1       4.191  -4.114  19.025  0.00  0.00    +0.116 A 
ATOM     24  S   UNL     1       3.907  -5.599  19.744  0.00  0.00    -0.076 S 
ATOM     25  C   UNL     1       4.878  -5.288  21.093  0.00  0.00    -0.014 A 
ATOM     26  C   UNL     1       5.425  -4.004  20.990  0.00  0.00    +0.004 A 
ATOM     27  C   UNL     1       5.039  -3.349  19.799  0.00  0.00    +0.080 A 
ATOM     28  H   UNL     1       5.212  -0.741  17.731  0.00  0.00    +0.170 HD
ATOM     29  H   UNL     1       5.031  -5.971  21.919  0.00  0.00    +0.070 HD
BRANCH  26  30
ATOM     30  C   UNL     1       6.277  -3.434  22.052  0.00  0.00    -0.016 A 
ATOM     31  C   UNL     1       7.616  -3.097  21.789  0.00  0.00    -0.051 A 
ATOM     32  C   UNL     1       8.409  -2.528  22.790  0.00  0.00    -0.026 A 
ATOM     33  C   UNL     1       7.868  -2.279  24.054  0.00  0.00    +0.123 A 
ATOM     34  F   UNL     1       8.638  -1.726  25.024  0.00  0.00    -0.205 F 
ATOM     35  C   UNL     1       6.532  -2.594  24.318  0.00  0.00    -0.026 A 
ATOM     36  C   UNL     1       5.736  -3.163  23.319  0.00  0.00    -0.051 A 
ATOM     37  H   UNL     1       8.041  -3.267  20.807  0.00  0.00    +0.062 HD
ATOM     38  H   UNL     1       9.441  -2.275  22.582  0.00  0.00    +0.065 HD
ATOM     39  H   UNL     1       6.112  -2.396  25.295  0.00  0.00    +0.065 HD
ATOM     40  H   UNL     1       4.702  -3.401  23.535  0.00  0.00    +0.062 HD
ENDBRANCH  26  30
ENDBRANCH  15  21
ENDBRANCH   1  15
BRANCH   4  41
ATOM     41  C   UNL     1       7.479   1.077  13.324  0.00  0.00    +0.024 C 
ATOM     42  H   UNL     1       7.512   1.019  12.212  0.00  0.00    +0.048 HD
ATOM     43  H   UNL     1       8.527   0.955  13.679  0.00  0.00    +0.048 HD
BRANCH  41  44
ATOM     44  C   UNL     1       7.010   2.432  13.786  0.00  0.00    -0.033 A 
ATOM     45  C   UNL     1       7.776   3.185  14.690  0.00  0.00    -0.056 A 
ATOM     46  C   UNL     1       7.342   4.451  15.097  0.00  0.00    -0.043 A 
ATOM     47  C   UNL     1       6.142   4.973  14.603  0.00  0.00    +0.041 A 
ATOM     48 CL   UNL     1       5.600   6.561  15.114  0.00  0.00    -0.084 Cl
ATOM     49  C   UNL     1       5.376   4.229  13.700  0.00  0.00    -0.043 A 
ATOM     50  C   UNL     1       5.808   2.964  13.291  0.00  0.00    -0.056 A 
ATOM     51  H   UNL     1       8.711   2.797  15.074  0.00  0.00    +0.062 HD
ATOM     52  H   UNL     1       7.940   5.025  15.793  0.00  0.00    +0.063 HD
ATOM     53  H   UNL     1       4.448   4.631  13.313  0.00  0.00    +0.063 HD
ATOM     54  H   UNL     1       5.209   2.399  12.586  0.00  0.00    +0.062 HD
ENDBRANCH  41  44
ENDBRANCH   4  41
TORSDOF 5
ENDMDL
MODEL 6
REMARK VINA RESULT:    -6.592      1.318      1.654
REMARK INTER + INTRA:          -8.899
REMARK INTER:                  -9.143
REMARK INTRA:                   0.244
REMARK UNBOUND:                -0.380
REMARK  Name = 
REMARK  5 active torsions:
REMARK  status: ('A' for Active; 'I' for Inactive)
REMARK    1  A    between atoms: N_1  and  C_15
REMARK    2  A    between atoms: N_4  and  C_41
REMARK    3  A    between atoms: C_15  and  C_21
REMARK    4  A    between atoms: C_26  and  C_30
REMARK    5  A    between atoms: C_41  and  C_44
REMARK                            x       y       z     vdW  Elec       q    Type
REMARK                         _______ _______ _______ _____ _____    ______ ____
ROOT
ATOM      1  N   UNL     1       4.449  -3.002  18.370  0.00  0.00    -0.293 NA
ATOM      2  C   UNL     1       3.645  -3.786  19.327  0.00  0.00    +0.012 C 
ATOM      3  C   UNL     1       4.543  -4.348  20.433  0.00  0.00    +0.012 C 
ATOM      4  N   UNL     1       5.234  -3.251  21.137  0.00  0.00    -0.296 NA
ATOM      5  C   UNL     1       6.038  -2.468  20.177  0.00  0.00    +0.012 C 
ATOM      6  C   UNL     1       5.137  -1.903  19.076  0.00  0.00    +0.012 C 
ATOM      7  H   UNL     1       3.164  -4.643  18.807  0.00  0.00    +0.044 HD
ATOM      8  H   UNL     1       2.845  -3.157  19.782  0.00  0.00    +0.044 HD
ATOM      9  H   UNL     1       3.899  -4.909  21.146  0.00  0.00    +0.044 HD
ATOM     10  H   UNL     1       5.278  -5.060  19.991  0.00  0.00    +0.044 HD
ATOM     11  H   UNL     1       6.834  -3.098  19.715  0.00  0.00    +0.044 HD
ATOM     12  H   UNL     1       6.526  -1.612  20.692  0.00  0.00    +0.044 HD
ATOM     13  H   UNL     1       5.778  -1.334  18.367  0.00  0.00    +0.044 HD
ATOM     14  H   UNL     1       4.402  -1.197  19.527  0.00  0.00    +0.044 HD
ENDROOT
BRANCH   1  15
ATOM     15  C   UNL     1       3.584  -2.478  17.294  0.00  0.00    +0.057 C 
ATOM     16  H   UNL     1       2.619  -2.100  17.703  0.00  0.00    +0.051 HD
ATOM     17  H   UNL     1       3.339  -3.281  16.565  0.00  0.00    +0.051 HD
BRANCH  15  21
ATOM     18  O   UNL     1       3.591   1.769  15.142  0.00  0.00    -0.267 OA
ATOM     19  C   UNL     1       4.241   0.744  15.475  0.00  0.00    +0.260 A 
ATOM     20  N   UNL     1       3.629  -0.245  16.192  0.00  0.00    -0.309 N 
ATOM     21  C   UNL     1       4.291  -1.394  16.533  0.00  0.00    +0.125 A 
ATOM     22  N   UNL     1       5.586  -1.578  16.147  0.00  0.00    -0.225 NA
ATOM     23  C   UNL     1       6.207  -0.603  15.446  0.00  0.00    +0.116 A 
ATOM     24  S   UNL     1       7.770  -0.646  14.846  0.00  0.00    -0.076 S 
ATOM     25  C   UNL     1       7.684   0.881  14.126  0.00  0.00    -0.014 A 
ATOM     26  C   UNL     1       6.424   1.440  14.362  0.00  0.00    +0.004 A 
ATOM     27  C   UNL     1       5.584   0.580  15.103  0.00  0.00    +0.080 A 
ATOM     28  H   UNL     1       2.629  -0.125  16.473  0.00  0.00    +0.170 HD
ATOM     29  H   UNL     1       8.492   1.358  13.585  0.00  0.00    +0.070 HD
BRANCH  26  30
ATOM     30  C   UNL     1       6.075   2.797  13.896  0.00  0.00    -0.016 A 
ATOM     31  C   UNL     1       5.406   2.981  12.674  0.00  0.00    -0.051 A 
ATOM     32  C   UNL     1       5.050   4.266  12.253  0.00  0.00    -0.026 A 
ATOM     33  C   UNL     1       5.347   5.372  13.053  0.00  0.00    +0.123 A 
ATOM     34  F   UNL     1       5.000   6.618  12.644  0.00  0.00    -0.205 F 
ATOM     35  C   UNL     1       5.996   5.195  14.278  0.00  0.00    -0.026 A 
ATOM     36  C   UNL     1       6.354   3.911  14.703  0.00  0.00    -0.051 A 
ATOM     37  H   UNL     1       5.152   2.130  12.054  0.00  0.00    +0.062 HD
ATOM     38  H   UNL     1       4.538   4.402  11.309  0.00  0.00    +0.065 HD
ATOM     39  H   UNL     1       6.221   6.051  14.901  0.00  0.00    +0.065 HD
ATOM     40  H   UNL     1       6.854   3.787  15.655  0.00  0.00    +0.062 HD
ENDBRANCH  26  30
ENDBRANCH  15  21
ENDBRANCH   1  15
BRANCH   4  41
ATOM     41  C   UNL     1       6.086  -3.796  22.215  0.00  0.00    +0.024 C 
ATOM     42  H   UNL     1       6.186  -4.901  22.123  0.00  0.00    +0.048 HD
ATOM     43  H   UNL     1       5.624  -3.601  23.208  0.00  0.00    +0.048 HD
BRANCH  41  44
ATOM     44  C   UNL     1       7.434  -3.124  22.214  0.00  0.00    -0.033 A 
ATOM     45  C   UNL     1       8.579  -3.817  21.786  0.00  0.00    -0.056 A 
ATOM     46  C   UNL     1       9.823  -3.178  21.769  0.00  0.00    -0.043 A 
ATOM     47  C   UNL     1       9.932  -1.844  22.176  0.00  0.00    +0.041 A 
ATOM     48 CL   UNL     1      11.494  -1.046  22.153  0.00  0.00    -0.084 Cl
ATOM     49  C   UNL     1       8.796  -1.148  22.599  0.00  0.00    -0.043 A 
ATOM     50  C   UNL     1       7.551  -1.783  22.617  0.00  0.00    -0.056 A 
ATOM     51  H   UNL     1       8.508  -4.847  21.461  0.00  0.00    +0.062 HD
ATOM     52  H   UNL     1      10.699  -3.720  21.437  0.00  0.00    +0.063 HD
ATOM     53  H   UNL     1       8.876  -0.114  22.912  0.00  0.00    +0.063 HD
ATOM     54  H   UNL     1       6.676  -1.232  22.941  0.00  0.00    +0.062 HD
ENDBRANCH  41  44
ENDBRANCH   4  41
TORSDOF 5
ENDMDL
