=
 OpenBabel10172503533D

 54 58  0  0  0  0  0  0  0  0999 V2000
    4.2220   -2.8010   17.6380 N   0  0  0  0  0  0  0  0  0  0  0  0
    3.6710   -4.1040   18.0580 C   0  0  0  0  0  0  0  0  0  0  0  0
    4.6810   -4.8450   18.9390 C   0  0  0  0  0  0  0  0  0  0  0  0
    5.0140   -4.0350   20.1260 N   0  0  0  0  0  0  0  0  0  0  0  0
    5.5660   -2.7310   19.7030 C   0  0  0  0  0  0  0  0  0  0  0  0
    4.5520   -1.9900   18.8280 C   0  0  0  0  0  0  0  0  0  0  0  0
    3.4660   -4.7340   17.1650 H   0  0  0  0  0  0  0  0  0  0  0  0
    2.7170   -3.9690   18.6190 H   0  0  0  0  0  0  0  0  0  0  0  0
    4.2210   -5.8070   19.2540 H   0  0  0  0  0  0  0  0  0  0  0  0
    5.5970   -5.0720   18.3450 H   0  0  0  0  0  0  0  0  0  0  0  0
    6.5160   -2.8640   19.1350 H   0  0  0  0  0  0  0  0  0  0  0  0
    5.7780   -2.0970   20.5920 H   0  0  0  0  0  0  0  0  0  0  0  0
    5.0060   -1.0240   18.5190 H   0  0  0  0  0  0  0  0  0  0  0  0
    3.6380   -1.7710   19.4270 H   0  0  0  0  0  0  0  0  0  0  0  0
    3.2530   -2.0970   16.7730 C   0  0  0  0  0  0  0  0  0  0  0  0
    2.4200   -1.6650   17.3730 H   0  0  0  0  0  0  0  0  0  0  0  0
    2.7990   -2.8030   16.0430 H   0  0  0  0  0  0  0  0  0  0  0  0
    3.9010    2.4870   15.6620 O   0  0  0  0  0  0  0  0  0  0  0  0
    4.2310    1.2870   15.4660 C   0  0  0  0  0  0  0  0  0  0  0  0
    3.6410    0.2940   16.1950 N   0  0  0  0  0  0  0  0  0  0  0  0
    3.9410   -1.0250   15.9800 C   0  0  0  0  0  0  0  0  0  0  0  0
    4.8360   -1.3730   15.0120 N   0  0  0  0  0  0  0  0  0  0  0  0
    5.4360   -0.3990   14.2900 C   0  0  0  0  0  0  0  0  0  0  0  0
    6.5280   -0.6140   13.0390 S   0  0  0  0  0  0  0  0  0  0  0  0
    6.7060    1.0380   12.7260 C   0  0  0  0  0  0  0  0  0  0  0  0
    5.9120    1.7710   13.6150 C   0  0  0  0  0  0  0  0  0  0  0  0
    5.1800    0.9410   14.4930 C   0  0  0  0  0  0  0  0  0  0  0  0
    2.9350    0.5480   16.9240 H   0  0  0  0  0  0  0  0  0  0  0  0
    7.3540    1.4600   11.9690 H   0  0  0  0  0  0  0  0  0  0  0  0
    5.9040    3.2480   13.6150 C   0  0  0  0  0  0  0  0  0  0  0  0
    5.0130    3.9560   12.7890 C   0  0  0  0  0  0  0  0  0  0  0  0
    4.9880    5.3530   12.8170 C   0  0  0  0  0  0  0  0  0  0  0  0
    5.8410    6.0520   13.6760 C   0  0  0  0  0  0  0  0  0  0  0  0
    5.8140    7.4080   13.7020 F   0  0  0  0  0  0  0  0  0  0  0  0
    6.7160    5.3550   14.5130 C   0  0  0  0  0  0  0  0  0  0  0  0
    6.7430    3.9560   14.4890 C   0  0  0  0  0  0  0  0  0  0  0  0
    4.3350    3.4250   12.1330 H   0  0  0  0  0  0  0  0  0  0  0  0
    4.3030    5.8930   12.1750 H   0  0  0  0  0  0  0  0  0  0  0  0
    7.3710    5.8950   15.1830 H   0  0  0  0  0  0  0  0  0  0  0  0
    7.4240    3.4270   15.1440 H   0  0  0  0  0  0  0  0  0  0  0  0
    5.9760   -4.7590   20.9820 C   0  0  0  0  0  0  0  0  0  0  0  0
    6.7470   -5.2760   20.3660 H   0  0  0  0  0  0  0  0  0  0  0  0
    5.4540   -5.5500   21.5650 H   0  0  0  0  0  0  0  0  0  0  0  0
    6.6110   -3.8220   21.9760 C   0  0  0  0  0  0  0  0  0  0  0  0
    5.9910   -3.5580   23.2080 C   0  0  0  0  0  0  0  0  0  0  0  0
    6.5970   -2.7020   24.1330 C   0  0  0  0  0  0  0  0  0  0  0  0
    7.8270   -2.1060   23.8350 C   0  0  0  0  0  0  0  0  0  0  0  0
    8.5860   -1.0340   24.9970 Cl  0  0  0  0  0  0  0  0  0  0  0  0
    8.4520   -2.3680   22.6110 C   0  0  0  0  0  0  0  0  0  0  0  0
    7.8480   -3.2230   21.6860 C   0  0  0  0  0  0  0  0  0  0  0  0
    5.0430   -4.0190   23.4560 H   0  0  0  0  0  0  0  0  0  0  0  0
    6.1120   -2.5060   25.0810 H   0  0  0  0  0  0  0  0  0  0  0  0
    9.4050   -1.9110   22.3780 H   0  0  0  0  0  0  0  0  0  0  0  0
    8.3440   -3.4230   20.7430 H   0  0  0  0  0  0  0  0  0  0  0  0
  1  2  1  0  0  0  0
  1  6  1  0  0  0  0
  2  8  1  0  0  0  0
  2  3  1  0  0  0  0
  3  9  1  0  0  0  0
  3  4  1  0  0  0  0
  4 41  1  0  0  0  0
  5  4  1  0  0  0  0
  5 12  1  0  0  0  0
  6 14  1  0  0  0  0
  6  5  1  0  0  0  0
  7  2  1  0  0  0  0
 10  3  1  0  0  0  0
 11  5  1  0  0  0  0
 13  6  1  0  0  0  0
 15 16  1  0  0  0  0
 15  1  1  0  0  0  0
 17 15  1  0  0  0  0
 19 18  2  0  0  0  0
 19 20  1  0  0  0  0
 20 28  1  0  0  0  0
 21 20  1  0  0  0  0
 21 15  1  0  0  0  0
 22 21  2  0  0  0  0
 23 27  2  0  0  0  0
 23 22  1  0  0  0  0
 24 23  1  0  0  0  0
 25 24  1  0  0  0  0
 25 26  2  0  0  0  0
 26 30  1  0  0  0  0
 26 27  1  0  0  0  0
 27 19  1  0  0  0  0
 29 25  1  0  0  0  0
 30 36  1  0  0  0  0
 31 32  1  0  0  0  0
 31 30  2  0  0  0  0
 32 33  2  0  0  0  0
 33 34  1  0  0  0  0
 33 35  1  0  0  0  0
 35 39  1  0  0  0  0
 36 35  2  0  0  0  0
 36 40  1  0  0  0  0
 37 31  1  0  0  0  0
 38 32  1  0  0  0  0
 41 43  1  0  0  0  0
 41 44  1  0  0  0  0
 42 41  1  0  0  0  0
 44 45  1  0  0  0  0
 45 51  1  0  0  0  0
 45 46  2  0  0  0  0
 46 52  1  0  0  0  0
 47 46  1  0  0  0  0
 47 48  1  0  0  0  0
 49 47  2  0  0  0  0
 50 44  2  0  0  0  0
 50 49  1  0  0  0  0
 53 49  1  0  0  0  0
 54 50  1  0  0  0  0
M  END
>  <MODEL>
1

>  <REMARK>
 VINA RESULT:    -9.550      0.000      0.000
 INTER + INTRA:         -12.722
 INTER:                 -12.341
 INTRA:                  -0.380
 UNBOUND:                -0.380
  Name = 
  5 active torsions:
  status: ('A' for Active; 'I' for Inactive)
    1  A    between atoms: N_1  and  C_15
    2  A    between atoms: N_4  and  C_41
    3  A    between atoms: C_15  and  C_21
    4  A    between atoms: C_26  and  C_30
    5  A    between atoms: C_41  and  C_44
                            x       y       z     vdW  Elec       q    Type
                         _______ _______ _______ _____ _____    ______ ____

>  <TORSDO>
F 5

$$$$
=
 OpenBabel10172503533D

 54 58  0  0  0  0  0  0  0  0999 V2000
    4.3380   -2.9610   17.9960 N   0  0  0  0  0  0  0  0  0  0  0  0
    3.8380   -4.3210   18.2740 C   0  0  0  0  0  0  0  0  0  0  0  0
    4.7440   -5.0180   19.2930 C   0  0  0  0  0  0  0  0  0  0  0  0
    4.8000   -4.2380   20.5440 N   0  0  0  0  0  0  0  0  0  0  0  0
    5.3020   -2.8770   20.2630 C   0  0  0  0  0  0  0  0  0  0  0  0
    4.3910   -2.1810   19.2490 C   0  0  0  0  0  0  0  0  0  0  0  0
    3.8430   -4.9260   17.3410 H   0  0  0  0  0  0  0  0  0  0  0  0
    2.7950   -4.2880   18.6650 H   0  0  0  0  0  0  0  0  0  0  0  0
    4.3210   -6.0260   19.4960 H   0  0  0  0  0  0  0  0  0  0  0  0
    5.7630   -5.1460   18.8600 H   0  0  0  0  0  0  0  0  0  0  0  0
    6.3420   -2.9090   19.8640 H   0  0  0  0  0  0  0  0  0  0  0  0
    5.3040   -2.2690   21.1940 H   0  0  0  0  0  0  0  0  0  0  0  0
    4.8070   -1.1680   19.0520 H   0  0  0  0  0  0  0  0  0  0  0  0
    3.3730   -2.0610   19.6870 H   0  0  0  0  0  0  0  0  0  0  0  0
    3.4740   -2.2990   16.9980 C   0  0  0  0  0  0  0  0  0  0  0  0
    2.5460   -1.9040   17.4710 H   0  0  0  0  0  0  0  0  0  0  0  0
    3.1600   -3.0220   16.2140 H   0  0  0  0  0  0  0  0  0  0  0  0
    3.6090    2.0270   15.0130 O   0  0  0  0  0  0  0  0  0  0  0  0
    4.2350    0.9810   15.3300 C   0  0  0  0  0  0  0  0  0  0  0  0
    3.5860   -0.0260   15.9850 N   0  0  0  0  0  0  0  0  0  0  0  0
    4.2210   -1.1960   16.3060 C   0  0  0  0  0  0  0  0  0  0  0  0
    5.5270   -1.3820   15.9600 N   0  0  0  0  0  0  0  0  0  0  0  0
    6.1850   -0.3890   15.3200 C   0  0  0  0  0  0  0  0  0  0  0  0
    7.7680   -0.4300   14.7760 S   0  0  0  0  0  0  0  0  0  0  0  0
    7.7260    1.1240   14.1120 C   0  0  0  0  0  0  0  0  0  0  0  0
    6.4650    1.6910   14.3240 C   0  0  0  0  0  0  0  0  0  0  0  0
    5.5880    0.8130   15.0010 C   0  0  0  0  0  0  0  0  0  0  0  0
    2.5770    0.0960   16.2350 H   0  0  0  0  0  0  0  0  0  0  0  0
    8.5580    1.6120   13.6200 H   0  0  0  0  0  0  0  0  0  0  0  0
    6.1490    3.0690   13.8990 C   0  0  0  0  0  0  0  0  0  0  0  0
    5.3900    3.3000   12.7390 C   0  0  0  0  0  0  0  0  0  0  0  0
    5.0670    4.6060   12.3580 C   0  0  0  0  0  0  0  0  0  0  0  0
    5.4880    5.6870   13.1380 C   0  0  0  0  0  0  0  0  0  0  0  0
    5.1730    6.9540   12.7680 F   0  0  0  0  0  0  0  0  0  0  0  0
    6.2270    5.4640   14.3020 C   0  0  0  0  0  0  0  0  0  0  0  0
    6.5520    4.1580   14.6870 C   0  0  0  0  0  0  0  0  0  0  0  0
    5.0420    2.4700   12.1370 H   0  0  0  0  0  0  0  0  0  0  0  0
    4.4850    4.7790   11.4610 H   0  0  0  0  0  0  0  0  0  0  0  0
    6.5480    6.3000   14.9100 H   0  0  0  0  0  0  0  0  0  0  0  0
    7.1230    3.9980   15.5930 H   0  0  0  0  0  0  0  0  0  0  0  0
    5.6610   -4.9210   21.5320 C   0  0  0  0  0  0  0  0  0  0  0  0
    6.3420   -5.6480   21.0320 H   0  0  0  0  0  0  0  0  0  0  0  0
    5.0400   -5.5080   22.2450 H   0  0  0  0  0  0  0  0  0  0  0  0
    6.4370   -3.9170   22.3420 C   0  0  0  0  0  0  0  0  0  0  0  0
    7.6120   -3.3400   21.8330 C   0  0  0  0  0  0  0  0  0  0  0  0
    8.3150   -2.3920   22.5840 C   0  0  0  0  0  0  0  0  0  0  0  0
    7.8480   -2.0130   23.8470 C   0  0  0  0  0  0  0  0  0  0  0  0
    8.7310   -0.8240   24.7870 Cl  0  0  0  0  0  0  0  0  0  0  0  0
    6.6770   -2.5810   24.3590 C   0  0  0  0  0  0  0  0  0  0  0  0
    5.9730   -3.5270   23.6100 C   0  0  0  0  0  0  0  0  0  0  0  0
    7.9800   -3.6180   20.8530 H   0  0  0  0  0  0  0  0  0  0  0  0
    9.2190   -1.9530   22.1820 H   0  0  0  0  0  0  0  0  0  0  0  0
    6.3110   -2.2880   25.3340 H   0  0  0  0  0  0  0  0  0  0  0  0
    5.0630   -3.9570   24.0140 H   0  0  0  0  0  0  0  0  0  0  0  0
  1  2  1  0  0  0  0
  1  6  1  0  0  0  0
  2  8  1  0  0  0  0
  2  3  1  0  0  0  0
  3  9  1  0  0  0  0
  3  4  1  0  0  0  0
  4 41  1  0  0  0  0
  5  4  1  0  0  0  0
  5 12  1  0  0  0  0
  6 14  1  0  0  0  0
  6  5  1  0  0  0  0
  7  2  1  0  0  0  0
 10  3  1  0  0  0  0
 11  5  1  0  0  0  0
 13  6  1  0  0  0  0
 15 16  1  0  0  0  0
 15  1  1  0  0  0  0
 17 15  1  0  0  0  0
 18 19  2  0  0  0  0
 19 20  1  0  0  0  0
 20 28  1  0  0  0  0
 20 21  1  0  0  0  0
 21 15  1  0  0  0  0
 22 21  2  0  0  0  0
 23 22  1  0  0  0  0
 24 23  1  0  0  0  0
 25 26  2  0  0  0  0
 25 24  1  0  0  0  0
 26 27  1  0  0  0  0
 27 23  2  0  0  0  0
 27 19  1  0  0  0  0
 29 25  1  0  0  0  0
 30 26  1  0  0  0  0
 30 36  1  0  0  0  0
 31 30  2  0  0  0  0
 32 31  1  0  0  0  0
 32 33  2  0  0  0  0
 33 35  1  0  0  0  0
 34 33  1  0  0  0  0
 35 36  2  0  0  0  0
 35 39  1  0  0  0  0
 36 40  1  0  0  0  0
 37 31  1  0  0  0  0
 38 32  1  0  0  0  0
 41 43  1  0  0  0  0
 41 44  1  0  0  0  0
 42 41  1  0  0  0  0
 44 50  1  0  0  0  0
 45 44  2  0  0  0  0
 45 46  1  0  0  0  0
 46 47  2  0  0  0  0
 47 49  1  0  0  0  0
 47 48  1  0  0  0  0
 49 53  1  0  0  0  0
 50 54  1  0  0  0  0
 50 49  2  0  0  0  0
 51 45  1  0  0  0  0
 52 46  1  0  0  0  0
M  END
>  <MODEL>
2

>  <REMARK>
 VINA RESULT:    -9.114      0.776      1.156
 INTER + INTRA:         -12.159
 INTER:                 -12.231
 INTRA:                   0.072
 UNBOUND:                -0.380
  Name = 
  5 active torsions:
  status: ('A' for Active; 'I' for Inactive)
    1  A    between atoms: N_1  and  C_15
    2  A    between atoms: N_4  and  C_41
    3  A    between atoms: C_15  and  C_21
    4  A    between atoms: C_26  and  C_30
    5  A    between atoms: C_41  and  C_44
                            x       y       z     vdW  Elec       q    Type
                         _______ _______ _______ _____ _____    ______ ____

>  <TORSDO>
F 5

$$$$
=
 OpenBabel10172503533D

 54 58  0  0  0  0  0  0  0  0999 V2000
    4.5050   -0.8480   15.3250 N   0  0  0  0  0  0  0  0  0  0  0  0
    3.9570    0.5190   15.4060 C   0  0  0  0  0  0  0  0  0  0  0  0
    4.9550    1.5240   14.8230 C   0  0  0  0  0  0  0  0  0  0  0  0
    5.2570    1.1860   13.4190 N   0  0  0  0  0  0  0  0  0  0  0  0
    5.8070   -0.1830   13.3400 C   0  0  0  0  0  0  0  0  0  0  0  0
    4.8040   -1.1850   13.9190 C   0  0  0  0  0  0  0  0  0  0  0  0
    3.7760    0.7930   16.4690 H   0  0  0  0  0  0  0  0  0  0  0  0
    2.9900    0.5930   14.8550 H   0  0  0  0  0  0  0  0  0  0  0  0
    4.4960    2.5350   14.8780 H   0  0  0  0  0  0  0  0  0  0  0  0
    5.8850    1.5250   15.4390 H   0  0  0  0  0  0  0  0  0  0  0  0
    6.7690   -0.2610   13.8980 H   0  0  0  0  0  0  0  0  0  0  0  0
    5.9940   -0.4610   12.2800 H   0  0  0  0  0  0  0  0  0  0  0  0
    5.2570   -2.1990   13.8550 H   0  0  0  0  0  0  0  0  0  0  0  0
    3.8760   -1.1770   13.3010 H   0  0  0  0  0  0  0  0  0  0  0  0
    3.5480   -1.8120   15.9060 C   0  0  0  0  0  0  0  0  0  0  0  0
    3.3660   -2.6640   15.2130 H   0  0  0  0  0  0  0  0  0  0  0  0
    2.5660   -1.3230   16.0890 H   0  0  0  0  0  0  0  0  0  0  0  0
    6.3090   -1.3400   19.7560 O   0  0  0  0  0  0  0  0  0  0  0  0
    5.4440   -2.0200   19.1430 C   0  0  0  0  0  0  0  0  0  0  0  0
    4.9540   -1.5760   17.9490 N   0  0  0  0  0  0  0  0  0  0  0  0
    4.0460   -2.3100   17.2320 C   0  0  0  0  0  0  0  0  0  0  0  0
    3.6210   -3.5180   17.7000 N   0  0  0  0  0  0  0  0  0  0  0  0
    4.0910   -3.9650   18.8860 C   0  0  0  0  0  0  0  0  0  0  0  0
    3.7290   -5.4290   19.6150 S   0  0  0  0  0  0  0  0  0  0  0  0
    4.7260   -5.1660   20.9550 C   0  0  0  0  0  0  0  0  0  0  0  0
    5.3440   -3.9170   20.8420 C   0  0  0  0  0  0  0  0  0  0  0  0
    4.9870   -3.2460   19.6500 C   0  0  0  0  0  0  0  0  0  0  0  0
    5.2900   -0.6620   17.5680 H   0  0  0  0  0  0  0  0  0  0  0  0
    4.8460   -5.8530   21.7830 H   0  0  0  0  0  0  0  0  0  0  0  0
    6.2350   -3.3900   21.8950 C   0  0  0  0  0  0  0  0  0  0  0  0
    7.5920   -3.1470   21.6240 C   0  0  0  0  0  0  0  0  0  0  0  0
    8.4240   -2.6190   22.6160 C   0  0  0  0  0  0  0  0  0  0  0  0
    7.9050   -2.3180   23.8790 C   0  0  0  0  0  0  0  0  0  0  0  0
    8.7120   -1.8050   24.8400 F   0  0  0  0  0  0  0  0  0  0  0  0
    6.5520   -2.5410   24.1490 C   0  0  0  0  0  0  0  0  0  0  0  0
    5.7160   -3.0680   23.1590 C   0  0  0  0  0  0  0  0  0  0  0  0
    8.0020   -3.3570   20.6440 H   0  0  0  0  0  0  0  0  0  0  0  0
    9.4700   -2.4370   22.4030 H   0  0  0  0  0  0  0  0  0  0  0  0
    6.1480   -2.3020   25.1240 H   0  0  0  0  0  0  0  0  0  0  0  0
    4.6690   -3.2340   23.3800 H   0  0  0  0  0  0  0  0  0  0  0  0
    6.2080    2.1670   12.8540 C   0  0  0  0  0  0  0  0  0  0  0  0
    6.0800    2.2560   11.7510 H   0  0  0  0  0  0  0  0  0  0  0  0
    7.2550    1.8310   13.0250 H   0  0  0  0  0  0  0  0  0  0  0  0
    6.0530    3.5040   13.5300 C   0  0  0  0  0  0  0  0  0  0  0  0
    6.9310    3.8930   14.5540 C   0  0  0  0  0  0  0  0  0  0  0  0
    6.7930    5.1450   15.1630 C   0  0  0  0  0  0  0  0  0  0  0  0
    5.7790    6.0160   14.7510 C   0  0  0  0  0  0  0  0  0  0  0  0
    5.6080    7.5860   15.5140 Cl  0  0  0  0  0  0  0  0  0  0  0  0
    4.9040    5.6360   13.7290 C   0  0  0  0  0  0  0  0  0  0  0  0
    5.0400    4.3860   13.1190 C   0  0  0  0  0  0  0  0  0  0  0  0
    7.7260    3.2330   14.8780 H   0  0  0  0  0  0  0  0  0  0  0  0
    7.4750    5.4370   15.9510 H   0  0  0  0  0  0  0  0  0  0  0  0
    4.1200    6.3090   13.4050 H   0  0  0  0  0  0  0  0  0  0  0  0
    4.3600    4.1040   12.3240 H   0  0  0  0  0  0  0  0  0  0  0  0
  1  2  1  0  0  0  0
  1 15  1  0  0  0  0
  2  7  1  0  0  0  0
  3  9  1  0  0  0  0
  3  2  1  0  0  0  0
  3 10  1  0  0  0  0
  4  3  1  0  0  0  0
  5  4  1  0  0  0  0
  5 11  1  0  0  0  0
  5  6  1  0  0  0  0
  6  1  1  0  0  0  0
  8  2  1  0  0  0  0
 12  5  1  0  0  0  0
 13  6  1  0  0  0  0
 14  6  1  0  0  0  0
 15 17  1  0  0  0  0
 15 21  1  0  0  0  0
 16 15  1  0  0  0  0
 19 27  1  0  0  0  0
 19 18  2  0  0  0  0
 20 19  1  0  0  0  0
 21 22  2  0  0  0  0
 21 20  1  0  0  0  0
 22 23  1  0  0  0  0
 23 24  1  0  0  0  0
 23 27  2  0  0  0  0
 24 25  1  0  0  0  0
 25 29  1  0  0  0  0
 26 25  2  0  0  0  0
 26 30  1  0  0  0  0
 27 26  1  0  0  0  0
 28 20  1  0  0  0  0
 30 36  1  0  0  0  0
 31 30  2  0  0  0  0
 31 32  1  0  0  0  0
 32 33  2  0  0  0  0
 33 35  1  0  0  0  0
 33 34  1  0  0  0  0
 35 39  1  0  0  0  0
 36 40  1  0  0  0  0
 36 35  2  0  0  0  0
 37 31  1  0  0  0  0
 38 32  1  0  0  0  0
 41 43  1  0  0  0  0
 41  4  1  0  0  0  0
 41 44  1  0  0  0  0
 42 41  1  0  0  0  0
 44 45  1  0  0  0  0
 45 51  1  0  0  0  0
 45 46  2  0  0  0  0
 46 52  1  0  0  0  0
 47 46  1  0  0  0  0
 47 48  1  0  0  0  0
 49 47  2  0  0  0  0
 50 44  2  0  0  0  0
 50 49  1  0  0  0  0
 53 49  1  0  0  0  0
 54 50  1  0  0  0  0
M  END
>  <MODEL>
3

>  <REMARK>
 VINA RESULT:    -7.827      4.068      9.530
 INTER + INTRA:         -10.495
 INTER:                 -10.756
 INTRA:                   0.260
 UNBOUND:                -0.380
  Name = 
  5 active torsions:
  status: ('A' for Active; 'I' for Inactive)
    1  A    between atoms: N_1  and  C_15
    2  A    between atoms: N_4  and  C_41
    3  A    between atoms: C_15  and  C_21
    4  A    between atoms: C_26  and  C_30
    5  A    between atoms: C_41  and  C_44
                            x       y       z     vdW  Elec       q    Type
                         _______ _______ _______ _____ _____    ______ ____

>  <TORSDO>
F 5

$$$$
=
 OpenBabel10172503533D

 54 58  0  0  0  0  0  0  0  0999 V2000
    4.5230   -0.8380   15.2900 N   0  0  0  0  0  0  0  0  0  0  0  0
    4.0030    0.5380   15.3970 C   0  0  0  0  0  0  0  0  0  0  0  0
    5.0110    1.5310   14.8110 C   0  0  0  0  0  0  0  0  0  0  0  0
    5.2850    1.2060   13.3980 N   0  0  0  0  0  0  0  0  0  0  0  0
    5.8070   -0.1720   13.2930 C   0  0  0  0  0  0  0  0  0  0  0  0
    4.7940   -1.1620   13.8740 C   0  0  0  0  0  0  0  0  0  0  0  0
    3.8430    0.8010   16.4660 H   0  0  0  0  0  0  0  0  0  0  0  0
    3.0300    0.6370   14.8620 H   0  0  0  0  0  0  0  0  0  0  0  0
    4.5730    2.5500   14.8870 H   0  0  0  0  0  0  0  0  0  0  0  0
    5.9500    1.5070   15.4120 H   0  0  0  0  0  0  0  0  0  0  0  0
    6.7760   -0.2750   13.8340 H   0  0  0  0  0  0  0  0  0  0  0  0
    5.9720   -0.4390   12.2270 H   0  0  0  0  0  0  0  0  0  0  0  0
    5.2260   -2.1830   13.7900 H   0  0  0  0  0  0  0  0  0  0  0  0
    3.8570   -1.1280   13.2710 H   0  0  0  0  0  0  0  0  0  0  0  0
    3.5570   -1.7910   15.8730 C   0  0  0  0  0  0  0  0  0  0  0  0
    3.3760   -2.6500   15.1860 H   0  0  0  0  0  0  0  0  0  0  0  0
    2.5760   -1.2950   16.0430 H   0  0  0  0  0  0  0  0  0  0  0  0
    6.2710   -1.2820   19.7510 O   0  0  0  0  0  0  0  0  0  0  0  0
    5.4170   -1.9700   19.1320 C   0  0  0  0  0  0  0  0  0  0  0  0
    4.9370   -1.5360   17.9300 N   0  0  0  0  0  0  0  0  0  0  0  0
    4.0420   -2.2780   17.2070 C   0  0  0  0  0  0  0  0  0  0  0  0
    3.6190   -3.4860   17.6770 N   0  0  0  0  0  0  0  0  0  0  0  0
    4.0770   -3.9240   18.8720 C   0  0  0  0  0  0  0  0  0  0  0  0
    3.7150   -5.3850   19.6050 S   0  0  0  0  0  0  0  0  0  0  0  0
    4.6950   -5.1090   20.9550 C   0  0  0  0  0  0  0  0  0  0  0  0
    5.3070   -3.8570   20.8410 C   0  0  0  0  0  0  0  0  0  0  0  0
    4.9600   -3.1950   19.6420 C   0  0  0  0  0  0  0  0  0  0  0  0
    5.2730   -0.6210   17.5480 H   0  0  0  0  0  0  0  0  0  0  0  0
    4.8100   -5.7900   21.7880 H   0  0  0  0  0  0  0  0  0  0  0  0
    6.1830   -3.3190   21.9010 C   0  0  0  0  0  0  0  0  0  0  0  0
    5.6690   -3.0440   23.1800 C   0  0  0  0  0  0  0  0  0  0  0  0
    6.5100   -2.5640   24.1880 C   0  0  0  0  0  0  0  0  0  0  0  0
    7.8700   -2.3680   23.9320 C   0  0  0  0  0  0  0  0  0  0  0  0
    8.6850   -1.9040   24.9120 F   0  0  0  0  0  0  0  0  0  0  0  0
    8.3920   -2.6570   22.6680 C   0  0  0  0  0  0  0  0  0  0  0  0
    7.5530   -3.1380   21.6560 C   0  0  0  0  0  0  0  0  0  0  0  0
    4.6210   -3.2100   23.3960 H   0  0  0  0  0  0  0  0  0  0  0  0
    6.1070   -2.3500   25.1700 H   0  0  0  0  0  0  0  0  0  0  0  0
    9.4460   -2.5120   22.4710 H   0  0  0  0  0  0  0  0  0  0  0  0
    7.9710   -3.3600   20.6820 H   0  0  0  0  0  0  0  0  0  0  0  0
    6.2450    2.1760   12.8310 C   0  0  0  0  0  0  0  0  0  0  0  0
    6.1310    2.2500   11.7250 H   0  0  0  0  0  0  0  0  0  0  0  0
    7.2890    1.8400   13.0200 H   0  0  0  0  0  0  0  0  0  0  0  0
    6.0870    3.5230   13.4870 C   0  0  0  0  0  0  0  0  0  0  0  0
    5.0740    4.4040   13.0760 C   0  0  0  0  0  0  0  0  0  0  0  0
    4.9210    5.6440   13.7050 C   0  0  0  0  0  0  0  0  0  0  0  0
    5.7780    6.0110   14.7480 C   0  0  0  0  0  0  0  0  0  0  0  0
    5.5840    7.5660   15.5350 Cl  0  0  0  0  0  0  0  0  0  0  0  0
    6.7870    5.1370   15.1640 C   0  0  0  0  0  0  0  0  0  0  0  0
    6.9410    3.8970   14.5380 C   0  0  0  0  0  0  0  0  0  0  0  0
    4.3980    4.1300   12.2760 H   0  0  0  0  0  0  0  0  0  0  0  0
    4.1360    6.3160   13.3820 H   0  0  0  0  0  0  0  0  0  0  0  0
    7.4500    5.4160   15.9730 H   0  0  0  0  0  0  0  0  0  0  0  0
    7.7220    3.2250   14.8720 H   0  0  0  0  0  0  0  0  0  0  0  0
  1  2  1  0  0  0  0
  1 15  1  0  0  0  0
  2  7  1  0  0  0  0
  3  9  1  0  0  0  0
  3  2  1  0  0  0  0
  3 10  1  0  0  0  0
  4  3  1  0  0  0  0
  5  4  1  0  0  0  0
  5 11  1  0  0  0  0
  5  6  1  0  0  0  0
  6  1  1  0  0  0  0
  8  2  1  0  0  0  0
 12  5  1  0  0  0  0
 13  6  1  0  0  0  0
 14  6  1  0  0  0  0
 15 17  1  0  0  0  0
 15 21  1  0  0  0  0
 16 15  1  0  0  0  0
 19 27  1  0  0  0  0
 19 18  2  0  0  0  0
 20 19  1  0  0  0  0
 21 22  2  0  0  0  0
 21 20  1  0  0  0  0
 22 23  1  0  0  0  0
 23 24  1  0  0  0  0
 23 27  2  0  0  0  0
 24 25  1  0  0  0  0
 25 29  1  0  0  0  0
 26 25  2  0  0  0  0
 26 30  1  0  0  0  0
 27 26  1  0  0  0  0
 28 20  1  0  0  0  0
 30 31  1  0  0  0  0
 31 37  1  0  0  0  0
 31 32  2  0  0  0  0
 32 38  1  0  0  0  0
 33 32  1  0  0  0  0
 33 34  1  0  0  0  0
 35 33  2  0  0  0  0
 36 30  2  0  0  0  0
 36 35  1  0  0  0  0
 39 35  1  0  0  0  0
 40 36  1  0  0  0  0
 41 43  1  0  0  0  0
 41  4  1  0  0  0  0
 41 44  1  0  0  0  0
 42 41  1  0  0  0  0
 44 50  1  0  0  0  0
 45 44  2  0  0  0  0
 45 46  1  0  0  0  0
 46 47  2  0  0  0  0
 47 49  1  0  0  0  0
 47 48  1  0  0  0  0
 49 53  1  0  0  0  0
 50 54  1  0  0  0  0
 50 49  2  0  0  0  0
 51 45  1  0  0  0  0
 52 46  1  0  0  0  0
M  END
>  <MODEL>
4

>  <REMARK>
 VINA RESULT:    -7.514      4.076      9.531
 INTER + INTRA:         -10.091
 INTER:                 -10.311
 INTRA:                   0.220
 UNBOUND:                -0.380
  Name = 
  5 active torsions:
  status: ('A' for Active; 'I' for Inactive)
    1  A    between atoms: N_1  and  C_15
    2  A    between atoms: N_4  and  C_41
    3  A    between atoms: C_15  and  C_21
    4  A    between atoms: C_26  and  C_30
    5  A    between atoms: C_41  and  C_44
                            x       y       z     vdW  Elec       q    Type
                         _______ _______ _______ _____ _____    ______ ____

>  <TORSDO>
F 5

$$$$
=
 OpenBabel10172503533D

 54 58  0  0  0  0  0  0  0  0999 V2000
    4.4230   -0.9190   15.5090 N   0  0  0  0  0  0  0  0  0  0  0  0
    4.3310   -0.8920   14.0360 C   0  0  0  0  0  0  0  0  0  0  0  0
    5.2200    0.2200   13.4720 C   0  0  0  0  0  0  0  0  0  0  0  0
    6.6210    0.0110   13.8840 N   0  0  0  0  0  0  0  0  0  0  0  0
    6.7110   -0.0140   15.3590 C   0  0  0  0  0  0  0  0  0  0  0  0
    5.8260   -1.1310   15.9190 C   0  0  0  0  0  0  0  0  0  0  0  0
    3.2830   -0.6850   13.7250 H   0  0  0  0  0  0  0  0  0  0  0  0
    4.6390   -1.8710   13.6010 H   0  0  0  0  0  0  0  0  0  0  0  0
    5.1430    0.1910   12.3630 H   0  0  0  0  0  0  0  0  0  0  0  0
    4.8470    1.2100   13.8240 H   0  0  0  0  0  0  0  0  0  0  0  0
    6.3950    0.9610   15.7960 H   0  0  0  0  0  0  0  0  0  0  0  0
    7.7570   -0.2160   15.6760 H   0  0  0  0  0  0  0  0  0  0  0  0
    5.9080   -1.1100   17.0280 H   0  0  0  0  0  0  0  0  0  0  0  0
    6.2020   -2.1160   15.5590 H   0  0  0  0  0  0  0  0  0  0  0  0
    3.5500   -1.9800   16.0510 C   0  0  0  0  0  0  0  0  0  0  0  0
    3.4630   -2.8310   15.3380 H   0  0  0  0  0  0  0  0  0  0  0  0
    2.5220   -1.5890   16.2200 H   0  0  0  0  0  0  0  0  0  0  0  0
    6.2510   -1.3720   19.9240 O   0  0  0  0  0  0  0  0  0  0  0  0
    5.4310   -2.0970   19.3010 C   0  0  0  0  0  0  0  0  0  0  0  0
    4.9240   -1.6760   18.1050 N   0  0  0  0  0  0  0  0  0  0  0  0
    4.0650   -2.4550   17.3780 C   0  0  0  0  0  0  0  0  0  0  0  0
    3.7060   -3.6880   17.8370 N   0  0  0  0  0  0  0  0  0  0  0  0
    4.1910   -4.1140   19.0250 C   0  0  0  0  0  0  0  0  0  0  0  0
    3.9070   -5.5990   19.7440 S   0  0  0  0  0  0  0  0  0  0  0  0
    4.8780   -5.2880   21.0930 C   0  0  0  0  0  0  0  0  0  0  0  0
    5.4250   -4.0040   20.9900 C   0  0  0  0  0  0  0  0  0  0  0  0
    5.0390   -3.3490   19.7990 C   0  0  0  0  0  0  0  0  0  0  0  0
    5.2120   -0.7410   17.7310 H   0  0  0  0  0  0  0  0  0  0  0  0
    5.0310   -5.9710   21.9190 H   0  0  0  0  0  0  0  0  0  0  0  0
    6.2770   -3.4340   22.0520 C   0  0  0  0  0  0  0  0  0  0  0  0
    7.6160   -3.0970   21.7890 C   0  0  0  0  0  0  0  0  0  0  0  0
    8.4090   -2.5280   22.7900 C   0  0  0  0  0  0  0  0  0  0  0  0
    7.8680   -2.2790   24.0540 C   0  0  0  0  0  0  0  0  0  0  0  0
    8.6380   -1.7260   25.0240 F   0  0  0  0  0  0  0  0  0  0  0  0
    6.5320   -2.5940   24.3180 C   0  0  0  0  0  0  0  0  0  0  0  0
    5.7360   -3.1630   23.3190 C   0  0  0  0  0  0  0  0  0  0  0  0
    8.0410   -3.2670   20.8070 H   0  0  0  0  0  0  0  0  0  0  0  0
    9.4410   -2.2750   22.5820 H   0  0  0  0  0  0  0  0  0  0  0  0
    6.1120   -2.3960   25.2950 H   0  0  0  0  0  0  0  0  0  0  0  0
    4.7020   -3.4010   23.5350 H   0  0  0  0  0  0  0  0  0  0  0  0
    7.4790    1.0770   13.3240 C   0  0  0  0  0  0  0  0  0  0  0  0
    7.5120    1.0190   12.2120 H   0  0  0  0  0  0  0  0  0  0  0  0
    8.5270    0.9550   13.6790 H   0  0  0  0  0  0  0  0  0  0  0  0
    7.0100    2.4320   13.7860 C   0  0  0  0  0  0  0  0  0  0  0  0
    7.7760    3.1850   14.6900 C   0  0  0  0  0  0  0  0  0  0  0  0
    7.3420    4.4510   15.0970 C   0  0  0  0  0  0  0  0  0  0  0  0
    6.1420    4.9730   14.6030 C   0  0  0  0  0  0  0  0  0  0  0  0
    5.6000    6.5610   15.1140 Cl  0  0  0  0  0  0  0  0  0  0  0  0
    5.3760    4.2290   13.7000 C   0  0  0  0  0  0  0  0  0  0  0  0
    5.8080    2.9640   13.2910 C   0  0  0  0  0  0  0  0  0  0  0  0
    8.7110    2.7970   15.0740 H   0  0  0  0  0  0  0  0  0  0  0  0
    7.9400    5.0250   15.7930 H   0  0  0  0  0  0  0  0  0  0  0  0
    4.4480    4.6310   13.3130 H   0  0  0  0  0  0  0  0  0  0  0  0
    5.2090    2.3990   12.5860 H   0  0  0  0  0  0  0  0  0  0  0  0
  1  6  1  0  0  0  0
  1 15  1  0  0  0  0
  2  1  1  0  0  0  0
  3 10  1  0  0  0  0
  3  4  1  0  0  0  0
  3  2  1  0  0  0  0
  4  5  1  0  0  0  0
  5 12  1  0  0  0  0
  5 11  1  0  0  0  0
  5  6  1  0  0  0  0
  6 13  1  0  0  0  0
  7  2  1  0  0  0  0
  8  2  1  0  0  0  0
  9  3  1  0  0  0  0
 14  6  1  0  0  0  0
 15 17  1  0  0  0  0
 15 21  1  0  0  0  0
 16 15  1  0  0  0  0
 19 27  1  0  0  0  0
 19 18  2  0  0  0  0
 20 19  1  0  0  0  0
 21 22  2  0  0  0  0
 21 20  1  0  0  0  0
 22 23  1  0  0  0  0
 23 24  1  0  0  0  0
 23 27  2  0  0  0  0
 24 25  1  0  0  0  0
 25 29  1  0  0  0  0
 26 25  2  0  0  0  0
 26 30  1  0  0  0  0
 27 26  1  0  0  0  0
 28 20  1  0  0  0  0
 30 36  1  0  0  0  0
 31 30  2  0  0  0  0
 31 32  1  0  0  0  0
 32 33  2  0  0  0  0
 33 35  1  0  0  0  0
 33 34  1  0  0  0  0
 35 39  1  0  0  0  0
 36 40  1  0  0  0  0
 36 35  2  0  0  0  0
 37 31  1  0  0  0  0
 38 32  1  0  0  0  0
 41 43  1  0  0  0  0
 41 44  1  0  0  0  0
 41  4  1  0  0  0  0
 42 41  1  0  0  0  0
 44 45  1  0  0  0  0
 45 51  1  0  0  0  0
 45 46  2  0  0  0  0
 46 52  1  0  0  0  0
 47 46  1  0  0  0  0
 47 48  1  0  0  0  0
 49 47  2  0  0  0  0
 50 49  1  0  0  0  0
 50 44  2  0  0  0  0
 53 49  1  0  0  0  0
 54 50  1  0  0  0  0
M  END
>  <MODEL>
5

>  <REMARK>
 VINA RESULT:    -6.718      4.091      9.295
 INTER + INTRA:          -9.062
 INTER:                 -10.824
 INTRA:                   1.761
 UNBOUND:                -0.380
  Name = 
  5 active torsions:
  status: ('A' for Active; 'I' for Inactive)
    1  A    between atoms: N_1  and  C_15
    2  A    between atoms: N_4  and  C_41
    3  A    between atoms: C_15  and  C_21
    4  A    between atoms: C_26  and  C_30
    5  A    between atoms: C_41  and  C_44
                            x       y       z     vdW  Elec       q    Type
                         _______ _______ _______ _____ _____    ______ ____

>  <TORSDO>
F 5

$$$$
=
 OpenBabel10172503533D

 54 58  0  0  0  0  0  0  0  0999 V2000
    4.4490   -3.0020   18.3700 N   0  0  0  0  0  0  0  0  0  0  0  0
    3.6450   -3.7860   19.3270 C   0  0  0  0  0  0  0  0  0  0  0  0
    4.5430   -4.3480   20.4330 C   0  0  0  0  0  0  0  0  0  0  0  0
    5.2340   -3.2510   21.1370 N   0  0  0  0  0  0  0  0  0  0  0  0
    6.0380   -2.4680   20.1770 C   0  0  0  0  0  0  0  0  0  0  0  0
    5.1370   -1.9030   19.0760 C   0  0  0  0  0  0  0  0  0  0  0  0
    3.1640   -4.6430   18.8070 H   0  0  0  0  0  0  0  0  0  0  0  0
    2.8450   -3.1570   19.7820 H   0  0  0  0  0  0  0  0  0  0  0  0
    3.8990   -4.9090   21.1460 H   0  0  0  0  0  0  0  0  0  0  0  0
    5.2780   -5.0600   19.9910 H   0  0  0  0  0  0  0  0  0  0  0  0
    6.8340   -3.0980   19.7150 H   0  0  0  0  0  0  0  0  0  0  0  0
    6.5260   -1.6120   20.6920 H   0  0  0  0  0  0  0  0  0  0  0  0
    5.7780   -1.3340   18.3670 H   0  0  0  0  0  0  0  0  0  0  0  0
    4.4020   -1.1970   19.5270 H   0  0  0  0  0  0  0  0  0  0  0  0
    3.5840   -2.4780   17.2940 C   0  0  0  0  0  0  0  0  0  0  0  0
    2.6190   -2.1000   17.7030 H   0  0  0  0  0  0  0  0  0  0  0  0
    3.3390   -3.2810   16.5650 H   0  0  0  0  0  0  0  0  0  0  0  0
    3.5910    1.7690   15.1420 O   0  0  0  0  0  0  0  0  0  0  0  0
    4.2410    0.7440   15.4750 C   0  0  0  0  0  0  0  0  0  0  0  0
    3.6290   -0.2450   16.1920 N   0  0  0  0  0  0  0  0  0  0  0  0
    4.2910   -1.3940   16.5330 C   0  0  0  0  0  0  0  0  0  0  0  0
    5.5860   -1.5780   16.1470 N   0  0  0  0  0  0  0  0  0  0  0  0
    6.2070   -0.6030   15.4460 C   0  0  0  0  0  0  0  0  0  0  0  0
    7.7700   -0.6460   14.8460 S   0  0  0  0  0  0  0  0  0  0  0  0
    7.6840    0.8810   14.1260 C   0  0  0  0  0  0  0  0  0  0  0  0
    6.4240    1.4400   14.3620 C   0  0  0  0  0  0  0  0  0  0  0  0
    5.5840    0.5800   15.1030 C   0  0  0  0  0  0  0  0  0  0  0  0
    2.6290   -0.1250   16.4730 H   0  0  0  0  0  0  0  0  0  0  0  0
    8.4920    1.3580   13.5850 H   0  0  0  0  0  0  0  0  0  0  0  0
    6.0750    2.7970   13.8960 C   0  0  0  0  0  0  0  0  0  0  0  0
    5.4060    2.9810   12.6740 C   0  0  0  0  0  0  0  0  0  0  0  0
    5.0500    4.2660   12.2530 C   0  0  0  0  0  0  0  0  0  0  0  0
    5.3470    5.3720   13.0530 C   0  0  0  0  0  0  0  0  0  0  0  0
    5.0000    6.6180   12.6440 F   0  0  0  0  0  0  0  0  0  0  0  0
    5.9960    5.1950   14.2780 C   0  0  0  0  0  0  0  0  0  0  0  0
    6.3540    3.9110   14.7030 C   0  0  0  0  0  0  0  0  0  0  0  0
    5.1520    2.1300   12.0540 H   0  0  0  0  0  0  0  0  0  0  0  0
    4.5380    4.4020   11.3090 H   0  0  0  0  0  0  0  0  0  0  0  0
    6.2210    6.0510   14.9010 H   0  0  0  0  0  0  0  0  0  0  0  0
    6.8540    3.7870   15.6550 H   0  0  0  0  0  0  0  0  0  0  0  0
    6.0860   -3.7960   22.2150 C   0  0  0  0  0  0  0  0  0  0  0  0
    6.1860   -4.9010   22.1230 H   0  0  0  0  0  0  0  0  0  0  0  0
    5.6240   -3.6010   23.2080 H   0  0  0  0  0  0  0  0  0  0  0  0
    7.4340   -3.1240   22.2140 C   0  0  0  0  0  0  0  0  0  0  0  0
    8.5790   -3.8170   21.7860 C   0  0  0  0  0  0  0  0  0  0  0  0
    9.8230   -3.1780   21.7690 C   0  0  0  0  0  0  0  0  0  0  0  0
    9.9320   -1.8440   22.1760 C   0  0  0  0  0  0  0  0  0  0  0  0
   11.4940   -1.0460   22.1530 Cl  0  0  0  0  0  0  0  0  0  0  0  0
    8.7960   -1.1480   22.5990 C   0  0  0  0  0  0  0  0  0  0  0  0
    7.5510   -1.7830   22.6170 C   0  0  0  0  0  0  0  0  0  0  0  0
    8.5080   -4.8470   21.4610 H   0  0  0  0  0  0  0  0  0  0  0  0
   10.6990   -3.7200   21.4370 H   0  0  0  0  0  0  0  0  0  0  0  0
    8.8760   -0.1140   22.9120 H   0  0  0  0  0  0  0  0  0  0  0  0
    6.6760   -1.2320   22.9410 H   0  0  0  0  0  0  0  0  0  0  0  0
  1  6  1  0  0  0  0
  1  2  1  0  0  0  0
  2  8  1  0  0  0  0
  2  3  1  0  0  0  0
  3  4  1  0  0  0  0
  3  9  1  0  0  0  0
  4 41  1  0  0  0  0
  5 12  1  0  0  0  0
  5  4  1  0  0  0  0
  6 14  1  0  0  0  0
  6  5  1  0  0  0  0
  7  2  1  0  0  0  0
 10  3  1  0  0  0  0
 11  5  1  0  0  0  0
 13  6  1  0  0  0  0
 15 16  1  0  0  0  0
 15  1  1  0  0  0  0
 17 15  1  0  0  0  0
 18 19  2  0  0  0  0
 19 20  1  0  0  0  0
 20 28  1  0  0  0  0
 20 21  1  0  0  0  0
 21 15  1  0  0  0  0
 22 21  2  0  0  0  0
 23 22  1  0  0  0  0
 24 23  1  0  0  0  0
 25 26  2  0  0  0  0
 25 24  1  0  0  0  0
 26 27  1  0  0  0  0
 27 23  2  0  0  0  0
 27 19  1  0  0  0  0
 29 25  1  0  0  0  0
 30 26  1  0  0  0  0
 30 36  1  0  0  0  0
 31 30  2  0  0  0  0
 32 31  1  0  0  0  0
 32 33  2  0  0  0  0
 33 35  1  0  0  0  0
 34 33  1  0  0  0  0
 35 36  2  0  0  0  0
 35 39  1  0  0  0  0
 36 40  1  0  0  0  0
 37 31  1  0  0  0  0
 38 32  1  0  0  0  0
 41 43  1  0  0  0  0
 42 41  1  0  0  0  0
 44 41  1  0  0  0  0
 44 50  1  0  0  0  0
 45 44  2  0  0  0  0
 46 45  1  0  0  0  0
 46 47  2  0  0  0  0
 47 49  1  0  0  0  0
 48 47  1  0  0  0  0
 49 50  2  0  0  0  0
 49 53  1  0  0  0  0
 50 54  1  0  0  0  0
 51 45  1  0  0  0  0
 52 46  1  0  0  0  0
M  END
>  <MODEL>
6

>  <REMARK>
 VINA RESULT:    -6.592      1.318      1.654
 INTER + INTRA:          -8.899
 INTER:                  -9.143
 INTRA:                   0.244
 UNBOUND:                -0.380
  Name = 
  5 active torsions:
  status: ('A' for Active; 'I' for Inactive)
    1  A    between atoms: N_1  and  C_15
    2  A    between atoms: N_4  and  C_41
    3  A    between atoms: C_15  and  C_21
    4  A    between atoms: C_26  and  C_30
    5  A    between atoms: C_41  and  C_44
                            x       y       z     vdW  Elec       q    Type
                         _______ _______ _______ _____ _____    ______ ____

>  <TORSDO>
F 5

$$$$
